@<TRIPOS>MOLECULE
ligand.pdb
 22 21 0 0 0
SMALL
GASTEIGER

@<TRIPOS>ATOM
      1  N         37.5610   -0.1880  -55.5760 N.3    90  ACA90      -0.3300
      2  C         32.3530   -4.7280  -56.3010 C.2    90  ACA90       0.3047
      3  O         31.4580   -4.6770  -57.2370 O.2    90  ACA90      -0.2510
      4  OXT       32.8180   -5.8450  -55.8830 O.3    90  ACA90      -0.4806
      5  C2        32.9560   -3.4000  -55.7830 C.3    90  ACA90       0.0448
      6  C3        33.7000   -2.4600  -56.6900 C.3    90  ACA90      -0.0429
      7  C4        35.1410   -2.1000  -56.1320 C.3    90  ACA90      -0.0514
      8  C5        35.1430   -0.6600  -55.6450 C.3    90  ACA90      -0.0406
      9  C6        36.3220   -0.2860  -54.8290 C.3    90  ACA90      -0.0069
     10 H          38.3189    0.0720  -54.9448 H      90  ACA90       0.1182
     11 H          37.4649    0.5216  -56.3024 H      90  ACA90       0.1182
     12 H          33.4648   -5.8590  -55.2052 H      90  ACA90       0.2951
     13 H          32.1415   -2.8401  -55.3731 H      90  ACA90       0.0377
     14 H          33.7298   -3.7428  -55.1283 H      90  ACA90       0.0377
     15 H          33.8078   -2.9208  -57.6496 H      90  ACA90       0.0270
     16 H          33.1372   -1.5522  -56.7537 H      90  ACA90       0.0270
     17 H          35.8655   -2.2154  -56.9109 H      90  ACA90       0.0266
     18 H          35.3863   -2.7540  -55.3214 H      90  ACA90       0.0266
     19 H          34.2651   -0.5069  -55.0527 H      90  ACA90       0.0277
     20 H          35.1721   -0.0443  -56.5196 H      90  ACA90       0.0277
     21 H          36.4489   -1.0252  -54.0659 H      90  ACA90       0.0422
     22 H          36.1244    0.6895  -54.4362 H      90  ACA90       0.0422
@<TRIPOS>BOND
     1     3     2    2
     2     6     7    1
     3     6     5    1
     4     2     4    1
     5     2     5    1
     6     7     8    1
     7     8     9    1
     8     1     9    1
     9     1    10    1
    10     1    11    1
    11     4    12    1
    12     5    13    1
    13     5    14    1
    14     6    15    1
    15     6    16    1
    16     7    17    1
    17     7    18    1
    18     8    19    1
    19     8    20    1
    20     9    21    1
    21     9    22    1
